*SPEF "IEEE 1481-1998"
*DESIGN "FIR"
*DATE "Thu Nov 14 09:58:26 2013"
*VENDOR "Silicon Perspective, A Cadence Company"
*PROGRAM "First Encounter"
*VERSION "04.10-p003_1"
*DESIGN_FLOW "PIN_CAP NONE" "NAME_SCOPE LOCAL"
*DIVIDER /
*DELIMITER :
*BUS_DELIMITER []
*T_UNIT 1 NS
*C_UNIT 1 PF
*R_UNIT 1 OHM
*L_UNIT 1 HENRY

*NAME_MAP

*1 DIN[7]
*2 DIN[6]
*3 DIN[5]
*4 DIN[4]
*5 DIN[3]
*6 DIN[2]
*7 DIN[1]
*8 DIN[0]
*9 H0[7]
*10 H0[6]
*11 H0[5]
*12 H0[4]
*13 H0[3]
*14 H0[2]
*15 H0[1]
*16 H0[0]
*17 H1[7]
*18 H1[6]
*19 H1[5]
*20 H1[4]
*21 H1[3]
*22 H1[2]
*23 H1[1]
*24 H1[0]
*25 H2[7]
*26 H2[6]
*27 H2[5]
*28 H2[4]
*29 H2[3]
*30 H2[2]
*31 H2[1]
*32 H2[0]
*33 H3[7]
*34 H3[6]
*35 H3[5]
*36 H3[4]
*37 H3[3]
*38 H3[2]
*39 H3[1]
*40 H3[0]
*41 H4[7]
*42 H4[6]
*43 H4[5]
*44 H4[4]
*45 H4[3]
*46 H4[2]
*47 H4[1]
*48 H4[0]
*49 H5[7]
*50 H5[6]
*51 H5[5]
*52 H5[4]
*53 H5[3]
*54 H5[2]
*55 H5[1]
*56 H5[0]
*57 H6[7]
*58 H6[6]
*59 H6[5]
*60 H6[4]
*61 H6[3]
*62 H6[2]
*63 H6[1]
*64 H6[0]
*65 DOUT[7]
*66 DOUT[6]
*67 DOUT[5]
*68 DOUT[4]
*69 DOUT[3]
*70 DOUT[2]
*71 DOUT[1]
*72 DOUT[0]
*73 VIN
*74 RST_n
*75 CLK
*76 VOUT
*77 SR_to_MUX
*78 MUX_to_PIPE1
*79 PIPE1_to_PIPE2
*80 PIPE2_to_REGOUT
*81 ADD_esteso_0__17_
*82 ADD_esteso_0__14_
*83 ADD_esteso_0__13_
*84 ADD_esteso_0__12_
*85 ADD_esteso_0__11_
*86 ADD_esteso_0__10_
*87 ADD_esteso_0__9_
*88 ADD_esteso_0__8_
*89 ADD_esteso_0__7_
*90 ADD_esteso_0__6_
*91 ADD_esteso_0__5_
*92 ADD_esteso_0__4_
*93 ADD_esteso_0__3_
*94 ADD_esteso_0__2_
*95 ADD_esteso_0__1_
*96 ADD_esteso_0__0_
*97 ADD_esteso_1__17_
*98 ADD_esteso_1__14_
*99 ADD_esteso_1__13_
*100 ADD_esteso_1__12_
*101 ADD_esteso_1__11_
*102 ADD_esteso_1__10_
*103 ADD_esteso_1__9_
*104 ADD_esteso_1__8_
*105 ADD_esteso_1__7_
*106 ADD_esteso_1__6_
*107 ADD_esteso_1__5_
*108 ADD_esteso_1__4_
*109 ADD_esteso_1__3_
*110 ADD_esteso_1__2_
*111 ADD_esteso_1__1_
*112 ADD_esteso_1__0_
*113 ADD_esteso_2__17_
*114 ADD_esteso_2__14_
*115 ADD_esteso_2__13_
*116 ADD_esteso_2__12_
*117 ADD_esteso_2__11_
*118 ADD_esteso_2__10_
*119 ADD_esteso_2__9_
*120 ADD_esteso_2__8_
*121 ADD_esteso_2__7_
*122 ADD_esteso_2__6_
*123 ADD_esteso_2__5_
*124 ADD_esteso_2__4_
*125 ADD_esteso_2__3_
*126 ADD_esteso_2__2_
*127 ADD_esteso_2__1_
*128 ADD_esteso_2__0_
*129 ADD_esteso_3__17_
*130 ADD_esteso_3__14_
*131 ADD_esteso_3__13_
*132 ADD_esteso_3__12_
*133 ADD_esteso_3__11_
*134 ADD_esteso_3__10_
*135 ADD_esteso_3__9_
*136 ADD_esteso_3__8_
*137 ADD_esteso_3__7_
*138 ADD_esteso_3__6_
*139 ADD_esteso_3__5_
*140 ADD_esteso_3__4_
*141 ADD_esteso_3__3_
*142 ADD_esteso_3__2_
*143 ADD_esteso_3__1_
*144 ADD_esteso_3__0_
*145 ADD_esteso_4__17_
*146 ADD_esteso_4__14_
*147 ADD_esteso_4__13_
*148 ADD_esteso_4__12_
*149 ADD_esteso_4__11_
*150 ADD_esteso_4__10_
*151 ADD_esteso_4__9_
*152 ADD_esteso_4__8_
*153 ADD_esteso_4__7_
*154 ADD_esteso_4__6_
*155 ADD_esteso_4__5_
*156 ADD_esteso_4__4_
*157 ADD_esteso_4__3_
*158 ADD_esteso_4__2_
*159 ADD_esteso_4__1_
*160 ADD_esteso_4__0_
*161 ADD_esteso_5__17_
*162 ADD_esteso_5__14_
*163 ADD_esteso_5__13_
*164 ADD_esteso_5__12_
*165 ADD_esteso_5__11_
*166 ADD_esteso_5__10_
*167 ADD_esteso_5__9_
*168 ADD_esteso_5__8_
*169 ADD_esteso_5__7_
*170 ADD_esteso_5__6_
*171 ADD_esteso_5__5_
*172 ADD_esteso_5__4_
*173 ADD_esteso_5__3_
*174 ADD_esteso_5__2_
*175 ADD_esteso_5__1_
*176 ADD_esteso_5__0_
*177 ADD_esteso_6__17_
*178 ADD_esteso_6__14_
*179 ADD_esteso_6__13_
*180 ADD_esteso_6__12_
*181 ADD_esteso_6__11_
*182 ADD_esteso_6__10_
*183 ADD_esteso_6__9_
*184 ADD_esteso_6__8_
*185 ADD_esteso_6__7_
*186 ADD_esteso_6__6_
*187 ADD_esteso_6__5_
*188 ADD_esteso_6__4_
*189 ADD_esteso_6__3_
*190 ADD_esteso_6__2_
*191 ADD_esteso_6__1_
*192 ADD_esteso_6__0_
*193 ADD_esteso_10__17_
*194 ADD_esteso_10__16_
*195 ADD_esteso_10__15_
*196 ADD_esteso_10__14_
*197 ADD_esteso_10__13_
*198 ADD_esteso_10__12_
*199 ADD_esteso_10__11_
*200 ADD_esteso_10__10_
*201 ADD_esteso_10__9_
*202 ADD_esteso_10__8_
*203 ADD_esteso_10__7_
*204 ADD_esteso_10__6_
*205 ADD_esteso_10__5_
*206 ADD_esteso_10__4_
*207 ADD_esteso_10__3_
*208 ADD_esteso_10__2_
*209 ADD_esteso_10__1_
*210 ADD_esteso_10__0_
*211 ADD_esteso_11__17_
*212 ADD_esteso_11__16_
*213 ADD_esteso_11__15_
*214 ADD_esteso_11__14_
*215 ADD_esteso_11__13_
*216 ADD_esteso_11__12_
*217 ADD_esteso_11__11_
*218 ADD_esteso_11__10_
*219 ADD_esteso_11__9_
*220 ADD_esteso_11__8_
*221 ADD_esteso_11__7_
*222 ADD_esteso_11__6_
*223 ADD_esteso_11__5_
*224 ADD_esteso_11__4_
*225 ADD_esteso_11__3_
*226 ADD_esteso_11__2_
*227 ADD_esteso_11__1_
*228 ADD_esteso_11__0_
*229 ADD_esteso_12__17_
*230 ADD_esteso_12__16_
*231 ADD_esteso_12__15_
*232 ADD_esteso_12__14_
*233 ADD_esteso_12__13_
*234 ADD_esteso_12__12_
*235 ADD_esteso_12__11_
*236 ADD_esteso_12__10_
*237 ADD_esteso_12__9_
*238 ADD_esteso_12__8_
*239 ADD_esteso_12__7_
*240 ADD_esteso_12__6_
*241 ADD_esteso_12__5_
*242 ADD_esteso_12__4_
*243 ADD_esteso_12__3_
*244 ADD_esteso_12__2_
*245 ADD_esteso_12__1_
*246 ADD_esteso_12__0_
*247 ADD_esteso_13__17_
*248 ADD_esteso_13__16_
*249 ADD_esteso_13__15_
*250 ADD_esteso_13__14_
*251 ADD_esteso_13__13_
*252 ADD_esteso_13__12_
*253 ADD_esteso_13__11_
*254 ADD_esteso_13__10_
*255 ADD_esteso_13__9_
*256 ADD_esteso_13__8_
*257 ADD_esteso_13__7_
*258 ADD_esteso_13__6_
*259 ADD_esteso_13__5_
*260 ADD_esteso_13__4_
*261 ADD_esteso_13__3_
*262 ADD_esteso_13__2_
*263 ADD_esteso_13__1_
*264 ADD_esteso_13__0_
*265 ADD_esteso_14__17_
*266 ADD_esteso_14__16_
*267 ADD_esteso_14__15_
*268 ADD_esteso_14__14_
*269 ADD_esteso_14__13_
*270 ADD_esteso_14__12_
*271 ADD_esteso_14__11_
*272 ADD_esteso_14__10_
*273 n8
*274 n9
*275 n10
*276 n11
*277 n12
*278 n13
*279 n14
*280 n15
*281 n16
*282 n17
*283 n18
*284 n19
*285 n20
*286 n21
*287 n22
*288 n23
*289 n24
*290 n25
*291 n26
*292 n27
*293 n28
*294 n29
*295 n30
*296 n31
*297 n32
*298 n33
*299 n34
*300 n35
*301 n36
*302 n37
*303 n38
*304 n39
*305 n40
*306 n41
*307 n42
*308 n43
*309 n44
*310 n45
*311 n46
*312 n47
*313 n48
*314 n49
*315 n50
*316 n51
*317 n52
*318 n53
*319 n54
*320 n55
*321 n56
*322 n57
*323 n58
*324 n59
*325 n60
*326 n61
*327 n62
*328 n63
*329 n64
*330 n65
*331 n66
*332 n67
*333 n68
*334 n69
*335 n70
*336 ADD2_2_add_16_DP_OP_276_702_2_n50
*337 ADD2_2_add_16_DP_OP_276_702_2_n49
*338 ADD2_2_add_16_DP_OP_276_702_2_n48
*339 ADD2_2_add_16_DP_OP_276_702_2_n47
*340 ADD2_2_add_16_DP_OP_276_702_2_n46
*341 ADD2_2_add_16_DP_OP_276_702_2_n45
*342 ADD2_2_add_16_DP_OP_276_702_2_n44
*343 ADD2_2_add_16_DP_OP_276_702_2_n43
*344 ADD2_2_add_16_DP_OP_276_702_2_n42
*345 ADD2_2_add_16_DP_OP_276_702_2_n41
*346 ADD2_2_add_16_DP_OP_276_702_2_n40
*347 ADD2_2_add_16_DP_OP_276_702_2_n39
*348 ADD2_2_add_16_DP_OP_276_702_2_n38
*349 ADD2_2_add_16_DP_OP_276_702_2_n37
*350 ADD2_2_add_16_DP_OP_276_702_2_n36
*351 ADD2_2_add_16_DP_OP_276_702_2_n35
*352 ADD2_2_add_16_DP_OP_276_702_2_n34
*353 ADD2_2_add_16_DP_OP_276_702_2_n33
*354 ADD2_2_add_16_DP_OP_276_702_2_n32
*355 ADD2_2_add_16_DP_OP_276_702_2_n31
*356 ADD2_2_add_16_DP_OP_276_702_2_n30
*357 ADD2_2_add_16_DP_OP_276_702_2_n29
*358 ADD2_2_add_16_DP_OP_276_702_2_n28
*359 ADD2_2_add_16_DP_OP_276_702_2_n27
*360 ADD2_2_add_16_DP_OP_276_702_2_n26
*361 ADD2_2_add_16_DP_OP_276_702_2_n25
*362 ADD2_2_add_16_DP_OP_276_702_2_n24
*363 ADD2_2_add_16_DP_OP_276_702_2_n23
*364 ADD2_2_add_16_DP_OP_276_702_2_n22
*365 ADD2_2_add_16_DP_OP_276_702_2_n21
*366 ADD2_2_add_16_DP_OP_276_702_2_n20
*367 ADD2_2_add_16_DP_OP_276_702_2_n19
*368 ADD2_2_add_16_DP_OP_276_702_2_n18
*369 ADD2_2_add_16_DP_OP_276_702_2_n17
*370 ADD2_2_add_16_DP_OP_276_702_2_n16
*371 ADD2_2_add_16_DP_OP_276_702_2_n15
*372 ADD2_2_add_16_DP_OP_276_702_2_n14
*373 ADD2_2_add_16_DP_OP_276_702_2_n13
*374 ADD2_2_add_16_DP_OP_276_702_2_n12
*375 ADD2_2_add_16_DP_OP_276_702_2_n11
*376 ADD2_2_add_16_DP_OP_276_702_2_n10
*377 ADD2_2_add_16_DP_OP_276_702_2_n9
*378 ADD2_2_add_16_DP_OP_276_702_2_n8
*379 ADD2_2_add_16_DP_OP_276_702_2_n7
*380 ADD2_2_add_16_DP_OP_276_702_2_n6
*381 ADD2_2_add_16_DP_OP_276_702_2_n5
*382 ADD2_2_add_16_DP_OP_276_702_2_n4
*383 ADD2_2_add_16_DP_OP_276_702_2_n3
*384 ADD2_2_add_16_DP_OP_276_702_2_n2
*385 ADD2_2_add_16_DP_OP_276_702_2_n1
*386 ADD2_1_add_16_DP_OP_277_5600_1_n69
*387 ADD2_1_add_16_DP_OP_277_5600_1_n68
*388 ADD2_1_add_16_DP_OP_277_5600_1_n67
*389 ADD2_1_add_16_DP_OP_277_5600_1_n66
*390 ADD2_1_add_16_DP_OP_277_5600_1_n65
*391 ADD2_1_add_16_DP_OP_277_5600_1_n64
*392 ADD2_1_add_16_DP_OP_277_5600_1_n63
*393 ADD2_1_add_16_DP_OP_277_5600_1_n62
*394 ADD2_1_add_16_DP_OP_277_5600_1_n61
*395 ADD2_1_add_16_DP_OP_277_5600_1_n60
*396 ADD2_1_add_16_DP_OP_277_5600_1_n59
*397 ADD2_1_add_16_DP_OP_277_5600_1_n58
*398 ADD2_1_add_16_DP_OP_277_5600_1_n57
*399 ADD2_1_add_16_DP_OP_277_5600_1_n56
*400 ADD2_1_add_16_DP_OP_277_5600_1_n55
*401 ADD2_1_add_16_DP_OP_277_5600_1_n54
*402 ADD2_1_add_16_DP_OP_277_5600_1_n53
*403 ADD2_1_add_16_DP_OP_277_5600_1_n52
*404 ADD2_1_add_16_DP_OP_277_5600_1_n51
*405 ADD2_1_add_16_DP_OP_277_5600_1_n50
*406 ADD2_1_add_16_DP_OP_277_5600_1_n49
*407 ADD2_1_add_16_DP_OP_277_5600_1_n48
*408 ADD2_1_add_16_DP_OP_277_5600_1_n47
*409 ADD2_1_add_16_DP_OP_277_5600_1_n46
*410 ADD2_1_add_16_DP_OP_277_5600_1_n45
*411 ADD2_1_add_16_DP_OP_277_5600_1_n44
*412 ADD2_1_add_16_DP_OP_277_5600_1_n43
*413 ADD2_1_add_16_DP_OP_277_5600_1_n42
*414 ADD2_1_add_16_DP_OP_277_5600_1_n41
*415 ADD2_1_add_16_DP_OP_277_5600_1_n40
*416 ADD2_1_add_16_DP_OP_277_5600_1_n39
*417 ADD2_1_add_16_DP_OP_277_5600_1_n38
*418 ADD2_1_add_16_DP_OP_277_5600_1_n37
*419 ADD2_1_add_16_DP_OP_277_5600_1_n36
*420 ADD2_1_add_16_DP_OP_277_5600_1_n35
*421 ADD2_1_add_16_DP_OP_277_5600_1_n34
*422 ADD2_1_add_16_DP_OP_277_5600_1_n33
*423 ADD2_1_add_16_DP_OP_277_5600_1_n32
*424 ADD2_1_add_16_DP_OP_277_5600_1_n31
*425 ADD2_1_add_16_DP_OP_277_5600_1_n30
*426 ADD2_1_add_16_DP_OP_277_5600_1_n29
*427 ADD2_1_add_16_DP_OP_277_5600_1_n28
*428 ADD2_1_add_16_DP_OP_277_5600_1_n27
*429 ADD2_1_add_16_DP_OP_277_5600_1_n26
*430 ADD2_1_add_16_DP_OP_277_5600_1_n25
*431 ADD2_1_add_16_DP_OP_277_5600_1_n24
*432 ADD2_1_add_16_DP_OP_277_5600_1_n23
*433 ADD2_1_add_16_DP_OP_277_5600_1_n22
*434 ADD2_1_add_16_DP_OP_277_5600_1_n21
*435 ADD2_1_add_16_DP_OP_277_5600_1_n20
*436 ADD2_1_add_16_DP_OP_277_5600_1_n19
*437 ADD2_1_add_16_DP_OP_277_5600_1_n18
*438 ADD2_1_add_16_DP_OP_277_5600_1_n17
*439 ADD2_1_add_16_DP_OP_277_5600_1_n16
*440 ADD2_1_add_16_DP_OP_277_5600_1_n15
*441 ADD2_1_add_16_DP_OP_277_5600_1_n14
*442 ADD2_1_add_16_DP_OP_277_5600_1_n13
*443 ADD2_1_add_16_DP_OP_277_5600_1_n12
*444 ADD2_1_add_16_DP_OP_277_5600_1_n11
*445 ADD2_1_add_16_DP_OP_277_5600_1_n10
*446 ADD2_1_add_16_DP_OP_277_5600_1_n9
*447 ADD2_1_add_16_DP_OP_277_5600_1_n8
*448 ADD2_1_add_16_DP_OP_277_5600_1_n7
*449 ADD2_1_add_16_DP_OP_277_5600_1_n6
*450 ADD2_1_add_16_DP_OP_277_5600_1_n5
*451 ADD2_1_add_16_DP_OP_277_5600_1_n4
*452 ADD2_1_add_16_DP_OP_277_5600_1_n3
*453 ADD2_1_add_16_DP_OP_277_5600_1_n2
*454 ADD2_1_add_16_DP_OP_277_5600_1_n1
*455 ADD3_1_add_16_carry_10_
*456 ADD3_1_add_16_carry_11_
*457 ADD3_1_add_16_carry_12_
*458 ADD3_1_add_16_carry_13_
*459 ADD3_1_add_16_carry_14_
*460 ADD3_1_add_16_carry_15_
*461 ADD3_1_add_16_carry_16_
*462 ADD3_1_add_16_carry_17_
*463 MULi_1_mult_15_n87
*464 MULi_1_mult_15_n86
*465 MULi_1_mult_15_n85
*466 MULi_1_mult_15_n84
*467 MULi_1_mult_15_n83
*468 MULi_1_mult_15_n82
*469 MULi_1_mult_15_n81
*470 MULi_1_mult_15_n79
*471 MULi_1_mult_15_n78
*472 MULi_1_mult_15_n77
*473 MULi_1_mult_15_n76
*474 MULi_1_mult_15_n75
*475 MULi_1_mult_15_n74
*476 MULi_1_mult_15_n72
*477 MULi_1_mult_15_n71
*478 MULi_1_mult_15_n70
*479 MULi_1_mult_15_n69
*480 MULi_1_mult_15_n68
*481 MULi_1_mult_15_n67
*482 MULi_1_mult_15_n66
*483 MULi_1_mult_15_n65
*484 MULi_1_mult_15_n64
*485 MULi_1_mult_15_n63
*486 MULi_1_mult_15_n62
*487 MULi_1_mult_15_n61
*488 MULi_1_mult_15_n60
*489 MULi_1_mult_15_n59
*490 MULi_1_mult_15_n58
*491 MULi_1_mult_15_n57
*492 MULi_1_mult_15_n56
*493 MULi_1_mult_15_n55
*494 MULi_1_mult_15_n54
*495 MULi_1_mult_15_n53
*496 MULi_1_mult_15_n52
*497 MULi_1_mult_15_n51
*498 MULi_1_mult_15_n50
*499 MULi_1_mult_15_n49
*500 MULi_1_mult_15_n48
*501 MULi_1_mult_15_n47
*502 MULi_1_mult_15_n46
*503 MULi_1_mult_15_n45
*504 MULi_1_mult_15_n44
*505 MULi_1_mult_15_n43
*506 MULi_1_mult_15_n42
*507 MULi_1_mult_15_n41
*508 MULi_1_mult_15_n40
*509 MULi_1_mult_15_n39
*510 MULi_1_mult_15_n38
*511 MULi_1_mult_15_n37
*512 MULi_1_mult_15_n36
*513 MULi_1_mult_15_n35
*514 MULi_1_mult_15_n34
*515 MULi_1_mult_15_n33
*516 MULi_1_mult_15_n32
*517 MULi_1_mult_15_n31
*518 MULi_1_mult_15_n28
*519 MULi_1_mult_15_n27
*520 MULi_1_mult_15_n26
*521 MULi_1_mult_15_n25
*522 MULi_1_mult_15_n24
*523 MULi_1_mult_15_n23
*524 MULi_1_mult_15_n22
*525 MULi_1_mult_15_n21
*526 MULi_1_mult_15_n20
*527 MULi_1_mult_15_n19
*528 MULi_1_mult_15_n18
*529 MULi_1_mult_15_n17
*530 MULi_1_mult_15_n16
*531 MULi_1_mult_15_n15
*532 MULi_1_mult_15_n14
*533 MULi_1_mult_15_n13
*534 MULi_1_mult_15_n12
*535 MULi_1_mult_15_n11
*536 MULi_1_mult_15_n10
*537 MULi_1_mult_15_n9
*538 MULi_1_mult_15_n8
*539 MULi_1_mult_15_n7
*540 MULi_1_mult_15_n6
*541 MULi_1_mult_15_n5
*542 MULi_1_mult_15_n4
*543 MULi_1_mult_15_n3
*544 MULi_1_mult_15_n2
*545 MULi_1_mult_15_n1
*546 MULi_2_mult_15_n87
*547 MULi_2_mult_15_n86
*548 MULi_2_mult_15_n85
*549 MULi_2_mult_15_n84
*550 MULi_2_mult_15_n83
*551 MULi_2_mult_15_n82
*552 MULi_2_mult_15_n81
*553 MULi_2_mult_15_n79
*554 MULi_2_mult_15_n78
*555 MULi_2_mult_15_n77
*556 MULi_2_mult_15_n76
*557 MULi_2_mult_15_n75
*558 MULi_2_mult_15_n74
*559 MULi_2_mult_15_n72
*560 MULi_2_mult_15_n71
*561 MULi_2_mult_15_n70
*562 MULi_2_mult_15_n69
*563 MULi_2_mult_15_n68
*564 MULi_2_mult_15_n67
*565 MULi_2_mult_15_n66
*566 MULi_2_mult_15_n65
*567 MULi_2_mult_15_n64
*568 MULi_2_mult_15_n63
*569 MULi_2_mult_15_n62
*570 MULi_2_mult_15_n61
*571 MULi_2_mult_15_n60
*572 MULi_2_mult_15_n59
*573 MULi_2_mult_15_n58
*574 MULi_2_mult_15_n57
*575 MULi_2_mult_15_n56
*576 MULi_2_mult_15_n55
*577 MULi_2_mult_15_n54
*578 MULi_2_mult_15_n53
*579 MULi_2_mult_15_n52
*580 MULi_2_mult_15_n51
*581 MULi_2_mult_15_n50
*582 MULi_2_mult_15_n49
*583 MULi_2_mult_15_n48
*584 MULi_2_mult_15_n47
*585 MULi_2_mult_15_n46
*586 MULi_2_mult_15_n45
*587 MULi_2_mult_15_n44
*588 MULi_2_mult_15_n43
*589 MULi_2_mult_15_n42
*590 MULi_2_mult_15_n41
*591 MULi_2_mult_15_n40
*592 MULi_2_mult_15_n39
*593 MULi_2_mult_15_n38
*594 MULi_2_mult_15_n37
*595 MULi_2_mult_15_n36
*596 MULi_2_mult_15_n35
*597 MULi_2_mult_15_n34
*598 MULi_2_mult_15_n33
*599 MULi_2_mult_15_n32
*600 MULi_2_mult_15_n31
*601 MULi_2_mult_15_n28
*602 MULi_2_mult_15_n27
*603 MULi_2_mult_15_n26
*604 MULi_2_mult_15_n25
*605 MULi_2_mult_15_n24
*606 MULi_2_mult_15_n23
*607 MULi_2_mult_15_n22
*608 MULi_2_mult_15_n21
*609 MULi_2_mult_15_n20
*610 MULi_2_mult_15_n19
*611 MULi_2_mult_15_n18
*612 MULi_2_mult_15_n17
*613 MULi_2_mult_15_n16
*614 MULi_2_mult_15_n15
*615 MULi_2_mult_15_n14
*616 MULi_2_mult_15_n13
*617 MULi_2_mult_15_n12
*618 MULi_2_mult_15_n11
*619 MULi_2_mult_15_n10
*620 MULi_2_mult_15_n9
*621 MULi_2_mult_15_n8
*622 MULi_2_mult_15_n7
*623 MULi_2_mult_15_n6
*624 MULi_2_mult_15_n5
*625 MULi_2_mult_15_n4
*626 MULi_2_mult_15_n3
*627 MULi_2_mult_15_n2
*628 MULi_2_mult_15_n1
*629 MULi_3_mult_15_n87
*630 MULi_3_mult_15_n86
*631 MULi_3_mult_15_n85
*632 MULi_3_mult_15_n84
*633 MULi_3_mult_15_n83
*634 MULi_3_mult_15_n82
*635 MULi_3_mult_15_n81
*636 MULi_3_mult_15_n79
*637 MULi_3_mult_15_n78
*638 MULi_3_mult_15_n77
*639 MULi_3_mult_15_n76
*640 MULi_3_mult_15_n75
*641 MULi_3_mult_15_n74
*642 MULi_3_mult_15_n72
*643 MULi_3_mult_15_n71
*644 MULi_3_mult_15_n70
*645 MULi_3_mult_15_n69
*646 MULi_3_mult_15_n68
*647 MULi_3_mult_15_n67
*648 MULi_3_mult_15_n66
*649 MULi_3_mult_15_n65
*650 MULi_3_mult_15_n64
*651 MULi_3_mult_15_n63
*652 MULi_3_mult_15_n62
*653 MULi_3_mult_15_n61
*654 MULi_3_mult_15_n60
*655 MULi_3_mult_15_n59
*656 MULi_3_mult_15_n58
*657 MULi_3_mult_15_n57
*658 MULi_3_mult_15_n56
*659 MULi_3_mult_15_n55
*660 MULi_3_mult_15_n54
*661 MULi_3_mult_15_n53
*662 MULi_3_mult_15_n52
*663 MULi_3_mult_15_n51
*664 MULi_3_mult_15_n50
*665 MULi_3_mult_15_n49
*666 MULi_3_mult_15_n48
*667 MULi_3_mult_15_n47
*668 MULi_3_mult_15_n46
*669 MULi_3_mult_15_n45
*670 MULi_3_mult_15_n44
*671 MULi_3_mult_15_n43
*672 MULi_3_mult_15_n42
*673 MULi_3_mult_15_n41
*674 MULi_3_mult_15_n40
*675 MULi_3_mult_15_n39
*676 MULi_3_mult_15_n38
*677 MULi_3_mult_15_n37
*678 MULi_3_mult_15_n36
*679 MULi_3_mult_15_n35
*680 MULi_3_mult_15_n34
*681 MULi_3_mult_15_n33
*682 MULi_3_mult_15_n32
*683 MULi_3_mult_15_n31
*684 MULi_3_mult_15_n28
*685 MULi_3_mult_15_n27
*686 MULi_3_mult_15_n26
*687 MULi_3_mult_15_n25
*688 MULi_3_mult_15_n24
*689 MULi_3_mult_15_n23
*690 MULi_3_mult_15_n22
*691 MULi_3_mult_15_n21
*692 MULi_3_mult_15_n20
*693 MULi_3_mult_15_n19
*694 MULi_3_mult_15_n18
*695 MULi_3_mult_15_n17
*696 MULi_3_mult_15_n16
*697 MULi_3_mult_15_n15
*698 MULi_3_mult_15_n14
*699 MULi_3_mult_15_n13
*700 MULi_3_mult_15_n12
*701 MULi_3_mult_15_n11
*702 MULi_3_mult_15_n10
*703 MULi_3_mult_15_n9
*704 MULi_3_mult_15_n8
*705 MULi_3_mult_15_n7
*706 MULi_3_mult_15_n6
*707 MULi_3_mult_15_n5
*708 MULi_3_mult_15_n4
*709 MULi_3_mult_15_n3
*710 MULi_3_mult_15_n2
*711 MULi_3_mult_15_n1
*712 MULi_4_mult_15_n87
*713 MULi_4_mult_15_n86
*714 MULi_4_mult_15_n85
*715 MULi_4_mult_15_n84
*716 MULi_4_mult_15_n83
*717 MULi_4_mult_15_n82
*718 MULi_4_mult_15_n81
*719 MULi_4_mult_15_n79
*720 MULi_4_mult_15_n78
*721 MULi_4_mult_15_n77
*722 MULi_4_mult_15_n76
*723 MULi_4_mult_15_n75
*724 MULi_4_mult_15_n74
*725 MULi_4_mult_15_n72
*726 MULi_4_mult_15_n71
*727 MULi_4_mult_15_n70
*728 MULi_4_mult_15_n69
*729 MULi_4_mult_15_n68
*730 MULi_4_mult_15_n67
*731 MULi_4_mult_15_n66
*732 MULi_4_mult_15_n65
*733 MULi_4_mult_15_n64
*734 MULi_4_mult_15_n63
*735 MULi_4_mult_15_n62
*736 MULi_4_mult_15_n61
*737 MULi_4_mult_15_n60
*738 MULi_4_mult_15_n59
*739 MULi_4_mult_15_n58
*740 MULi_4_mult_15_n57
*741 MULi_4_mult_15_n56
*742 MULi_4_mult_15_n55
*743 MULi_4_mult_15_n54
*744 MULi_4_mult_15_n53
*745 MULi_4_mult_15_n52
*746 MULi_4_mult_15_n51
*747 MULi_4_mult_15_n50
*748 MULi_4_mult_15_n49
*749 MULi_4_mult_15_n48
*750 MULi_4_mult_15_n47
*751 MULi_4_mult_15_n46
*752 MULi_4_mult_15_n45
*753 MULi_4_mult_15_n44
*754 MULi_4_mult_15_n43
*755 MULi_4_mult_15_n42
*756 MULi_4_mult_15_n41
*757 MULi_4_mult_15_n40
*758 MULi_4_mult_15_n39
*759 MULi_4_mult_15_n38
*760 MULi_4_mult_15_n37
*761 MULi_4_mult_15_n36
*762 MULi_4_mult_15_n35
*763 MULi_4_mult_15_n34
*764 MULi_4_mult_15_n33
*765 MULi_4_mult_15_n32
*766 MULi_4_mult_15_n31
*767 MULi_4_mult_15_n28
*768 MULi_4_mult_15_n27
*769 MULi_4_mult_15_n26
*770 MULi_4_mult_15_n25
*771 MULi_4_mult_15_n24
*772 MULi_4_mult_15_n23
*773 MULi_4_mult_15_n22
*774 MULi_4_mult_15_n21
*775 MULi_4_mult_15_n20
*776 MULi_4_mult_15_n19
*777 MULi_4_mult_15_n18
*778 MULi_4_mult_15_n17
*779 MULi_4_mult_15_n16
*780 MULi_4_mult_15_n15
*781 MULi_4_mult_15_n14
*782 MULi_4_mult_15_n13
*783 MULi_4_mult_15_n12
*784 MULi_4_mult_15_n11
*785 MULi_4_mult_15_n10
*786 MULi_4_mult_15_n9
*787 MULi_4_mult_15_n8
*788 MULi_4_mult_15_n7
*789 MULi_4_mult_15_n6
*790 MULi_4_mult_15_n5
*791 MULi_4_mult_15_n4
*792 MULi_4_mult_15_n3
*793 MULi_4_mult_15_n2
*794 MULi_4_mult_15_n1
*795 MULi_5_mult_15_n87
*796 MULi_5_mult_15_n86
*797 MULi_5_mult_15_n85
*798 MULi_5_mult_15_n84
*799 MULi_5_mult_15_n83
*800 MULi_5_mult_15_n82
*801 MULi_5_mult_15_n81
*802 MULi_5_mult_15_n79
*803 MULi_5_mult_15_n78
*804 MULi_5_mult_15_n77
*805 MULi_5_mult_15_n76
*806 MULi_5_mult_15_n75
*807 MULi_5_mult_15_n74
*808 MULi_5_mult_15_n72
*809 MULi_5_mult_15_n71
*810 MULi_5_mult_15_n70
*811 MULi_5_mult_15_n69
*812 MULi_5_mult_15_n68
*813 MULi_5_mult_15_n67
*814 MULi_5_mult_15_n66
*815 MULi_5_mult_15_n65
*816 MULi_5_mult_15_n64
*817 MULi_5_mult_15_n63
*818 MULi_5_mult_15_n62
*819 MULi_5_mult_15_n61
*820 MULi_5_mult_15_n60
*821 MULi_5_mult_15_n59
*822 MULi_5_mult_15_n58
*823 MULi_5_mult_15_n57
*824 MULi_5_mult_15_n56
*825 MULi_5_mult_15_n55
*826 MULi_5_mult_15_n54
*827 MULi_5_mult_15_n53
*828 MULi_5_mult_15_n52
*829 MULi_5_mult_15_n51
*830 MULi_5_mult_15_n50
*831 MULi_5_mult_15_n49
*832 MULi_5_mult_15_n48
*833 MULi_5_mult_15_n47
*834 MULi_5_mult_15_n46
*835 MULi_5_mult_15_n45
*836 MULi_5_mult_15_n44
*837 MULi_5_mult_15_n43
*838 MULi_5_mult_15_n42
*839 MULi_5_mult_15_n41
*840 MULi_5_mult_15_n40
*841 MULi_5_mult_15_n39
*842 MULi_5_mult_15_n38
*843 MULi_5_mult_15_n37
*844 MULi_5_mult_15_n36
*845 MULi_5_mult_15_n35
*846 MULi_5_mult_15_n34
*847 MULi_5_mult_15_n33
*848 MULi_5_mult_15_n32
*849 MULi_5_mult_15_n31
*850 MULi_5_mult_15_n28
*851 MULi_5_mult_15_n27
*852 MULi_5_mult_15_n26
*853 MULi_5_mult_15_n25
*854 MULi_5_mult_15_n24
*855 MULi_5_mult_15_n23
*856 MULi_5_mult_15_n22
*857 MULi_5_mult_15_n21
*858 MULi_5_mult_15_n20
*859 MULi_5_mult_15_n19
*860 MULi_5_mult_15_n18
*861 MULi_5_mult_15_n17
*862 MULi_5_mult_15_n16
*863 MULi_5_mult_15_n15
*864 MULi_5_mult_15_n14
*865 MULi_5_mult_15_n13
*866 MULi_5_mult_15_n12
*867 MULi_5_mult_15_n11
*868 MULi_5_mult_15_n10
*869 MULi_5_mult_15_n9
*870 MULi_5_mult_15_n8
*871 MULi_5_mult_15_n7
*872 MULi_5_mult_15_n6
*873 MULi_5_mult_15_n5
*874 MULi_5_mult_15_n4
*875 MULi_5_mult_15_n3
*876 MULi_5_mult_15_n2
*877 MULi_5_mult_15_n1
*878 MULi_6_mult_15_n87
*879 MULi_6_mult_15_n86
*880 MULi_6_mult_15_n85
*881 MULi_6_mult_15_n84
*882 MULi_6_mult_15_n83
*883 MULi_6_mult_15_n82
*884 MULi_6_mult_15_n81
*885 MULi_6_mult_15_n79
*886 MULi_6_mult_15_n78
*887 MULi_6_mult_15_n77
*888 MULi_6_mult_15_n76
*889 MULi_6_mult_15_n75
*890 MULi_6_mult_15_n74
*891 MULi_6_mult_15_n72
*892 MULi_6_mult_15_n71
*893 MULi_6_mult_15_n70
*894 MULi_6_mult_15_n69
*895 MULi_6_mult_15_n68
*896 MULi_6_mult_15_n67
*897 MULi_6_mult_15_n66
*898 MULi_6_mult_15_n65
*899 MULi_6_mult_15_n64
*900 MULi_6_mult_15_n63
*901 MULi_6_mult_15_n62
*902 MULi_6_mult_15_n61
*903 MULi_6_mult_15_n60
*904 MULi_6_mult_15_n59
*905 MULi_6_mult_15_n58
*906 MULi_6_mult_15_n57
*907 MULi_6_mult_15_n56
*908 MULi_6_mult_15_n55
*909 MULi_6_mult_15_n54
*910 MULi_6_mult_15_n53
*911 MULi_6_mult_15_n52
*912 MULi_6_mult_15_n51
*913 MULi_6_mult_15_n50
*914 MULi_6_mult_15_n49
*915 MULi_6_mult_15_n48
*916 MULi_6_mult_15_n47
*917 MULi_6_mult_15_n46
*918 MULi_6_mult_15_n45
*919 MULi_6_mult_15_n44
*920 MULi_6_mult_15_n43
*921 MULi_6_mult_15_n42
*922 MULi_6_mult_15_n41
*923 MULi_6_mult_15_n40
*924 MULi_6_mult_15_n39
*925 MULi_6_mult_15_n38
*926 MULi_6_mult_15_n37
*927 MULi_6_mult_15_n36
*928 MULi_6_mult_15_n35
*929 MULi_6_mult_15_n34
*930 MULi_6_mult_15_n33
*931 MULi_6_mult_15_n32
*932 MULi_6_mult_15_n31
*933 MULi_6_mult_15_n28
*934 MULi_6_mult_15_n27
*935 MULi_6_mult_15_n26
*936 MULi_6_mult_15_n25
*937 MULi_6_mult_15_n24
*938 MULi_6_mult_15_n23
*939 MULi_6_mult_15_n22
*940 MULi_6_mult_15_n21
*941 MULi_6_mult_15_n20
*942 MULi_6_mult_15_n19
*943 MULi_6_mult_15_n18
*944 MULi_6_mult_15_n17
*945 MULi_6_mult_15_n16
*946 MULi_6_mult_15_n15
*947 MULi_6_mult_15_n14
*948 MULi_6_mult_15_n13
*949 MULi_6_mult_15_n12
*950 MULi_6_mult_15_n11
*951 MULi_6_mult_15_n10
*952 MULi_6_mult_15_n9
*953 MULi_6_mult_15_n8
*954 MULi_6_mult_15_n7
*955 MULi_6_mult_15_n6
*956 MULi_6_mult_15_n5
*957 MULi_6_mult_15_n4
*958 MULi_6_mult_15_n3
*959 MULi_6_mult_15_n2
*960 MULi_6_mult_15_n1
*961 MULi_0_mult_15_n87
*962 MULi_0_mult_15_n86
*963 MULi_0_mult_15_n85
*964 MULi_0_mult_15_n84
*965 MULi_0_mult_15_n83
*966 MULi_0_mult_15_n82
*967 MULi_0_mult_15_n81
*968 MULi_0_mult_15_n79
*969 MULi_0_mult_15_n78
*970 MULi_0_mult_15_n77
*971 MULi_0_mult_15_n76
*972 MULi_0_mult_15_n75
*973 MULi_0_mult_15_n74
*974 MULi_0_mult_15_n72
*975 MULi_0_mult_15_n71
*976 MULi_0_mult_15_n70
*977 MULi_0_mult_15_n69
*978 MULi_0_mult_15_n68
*979 MULi_0_mult_15_n67
*980 MULi_0_mult_15_n66
*981 MULi_0_mult_15_n65
*982 MULi_0_mult_15_n64
*983 MULi_0_mult_15_n63
*984 MULi_0_mult_15_n62
*985 MULi_0_mult_15_n61
*986 MULi_0_mult_15_n60
*987 MULi_0_mult_15_n59
*988 MULi_0_mult_15_n58
*989 MULi_0_mult_15_n57
*990 MULi_0_mult_15_n56
*991 MULi_0_mult_15_n55
*992 MULi_0_mult_15_n54
*993 MULi_0_mult_15_n53
*994 MULi_0_mult_15_n52
*995 MULi_0_mult_15_n51
*996 MULi_0_mult_15_n50
*997 MULi_0_mult_15_n49
*998 MULi_0_mult_15_n48
*999 MULi_0_mult_15_n47
*1000 MULi_0_mult_15_n46
*1001 MULi_0_mult_15_n45
*1002 MULi_0_mult_15_n44
*1003 MULi_0_mult_15_n43
*1004 MULi_0_mult_15_n42
*1005 MULi_0_mult_15_n41
*1006 MULi_0_mult_15_n40
*1007 MULi_0_mult_15_n39
*1008 MULi_0_mult_15_n38
*1009 MULi_0_mult_15_n37
*1010 MULi_0_mult_15_n36
*1011 MULi_0_mult_15_n35
*1012 MULi_0_mult_15_n34
*1013 MULi_0_mult_15_n33
*1014 MULi_0_mult_15_n32
*1015 MULi_0_mult_15_n31
*1016 MULi_0_mult_15_n28
*1017 MULi_0_mult_15_n27
*1018 MULi_0_mult_15_n26
*1019 MULi_0_mult_15_n25
*1020 MULi_0_mult_15_n24
*1021 MULi_0_mult_15_n23
*1022 MULi_0_mult_15_n22
*1023 MULi_0_mult_15_n21
*1024 MULi_0_mult_15_n20
*1025 MULi_0_mult_15_n19
*1026 MULi_0_mult_15_n18
*1027 MULi_0_mult_15_n17
*1028 MULi_0_mult_15_n16
*1029 MULi_0_mult_15_n15
*1030 MULi_0_mult_15_n14
*1031 MULi_0_mult_15_n13
*1032 MULi_0_mult_15_n12
*1033 MULi_0_mult_15_n11
*1034 MULi_0_mult_15_n10
*1035 MULi_0_mult_15_n9
*1036 MULi_0_mult_15_n8
*1037 MULi_0_mult_15_n7
*1038 MULi_0_mult_15_n6
*1039 MULi_0_mult_15_n5
*1040 MULi_0_mult_15_n4
*1041 MULi_0_mult_15_n3
*1042 MULi_0_mult_15_n2
*1043 MULi_0_mult_15_n1
*1044 n71
*1045 n72
*1046 n73
*1047 n74
*1048 n75
*1049 n76
*1050 n77
*1051 n78
*1052 n79
*1053 n80
*1054 n81
*1055 n82
*1056 n83
*1057 n84
*1058 n85
*1059 n86
*1060 n87
*1061 n88
*1062 n89
*1063 n90
*1064 n91
*1065 n92
*1066 n93
*1067 n94
*1068 n95
*1069 n96
*1070 n97
*1071 n98
*1072 n99
*1073 n100
*1074 n101
*1075 n102
*1076 n103
*1077 n104
*1078 n105
*1079 n106
*1080 n107
*1081 n108
*1082 n109
*1083 n110
*1084 n111
*1085 n112
*1086 n113
*1087 n114
*1088 n115
*1089 n116
*1090 n117
*1091 n118
*1092 n119
*1093 n120
*1094 n121
*1095 n122
*1096 n123
*1097 n148
*1098 n149
*1099 n150
*1100 n151
*1101 n152
*1102 n153
*1103 n154
*1104 n155
*1105 n156
*1106 n157
*1107 n158
*1108 n159
*1109 n160
*1110 n161
*1111 n162
*1112 n163
*1113 n164
*1114 n165
*1115 n166
*1116 n167
*1117 n168
*1118 n169
*1119 n170
*1120 n171
*1121 n172
*1122 n173
*1123 n174
*1124 n175
*1125 n176
*1126 n177
*1127 n178
*1128 n179
*1129 n180
*1130 n181
*1131 n182
*1132 n183
*1133 n184
*1134 n185
*1135 n186
*1136 n187
*1137 n188
*1138 n189
*1139 n190
*1140 n191
*1141 n192
*1142 n193
*1143 n194
*1144 n195
*1145 n196
*1146 n197
*1147 n198
*1148 n199
*1149 n200
*1150 n201
*1151 n202
*1152 n203
*1153 n204
*1154 n205
*1155 n206
*1156 n207
*1157 n208
*1158 n209
*1159 n210
*1160 n211
*1161 n212
*1162 n213
*1163 n214
*1164 n215
*1165 n216
*1166 n217
*1167 n218
*1168 n219
*1169 n220
*1170 n221
*1171 n222
*1172 n223
*1173 n224
*1174 n225
*1175 n226
*1176 n227
*1177 n228
*1178 n229
*1179 n230
*1180 n231
*1181 n232
*1182 n233
*1183 n234
*1184 n235
*1185 n236
*1186 n237
*1187 n238
*1188 n239
*1189 n240
*1190 n241
*1191 n242
*1192 n243
*1193 n244
*1194 n245
*1195 n246
*1196 n247
*1197 n248
*1198 n249
*1199 n250
*1200 n251
*1201 n252
*1202 n253
*1203 n254
*1204 n255
*1205 n256
*1206 n257
*1207 n258
*1208 n259
*1209 n260
*1210 n261
*1211 n262
*1212 n263
*1213 n264
*1214 n265
*1215 n266
*1216 n267
*1217 n268
*1218 n269
*1219 n270
*1220 n271
*1221 n272
*1222 n273
*1223 n274
*1224 n275
*1225 n276
*1226 n277
*1227 n278
*1228 n279
*1229 n280
*1230 n281
*1231 n282
*1232 n283
*1233 n284
*1234 n285
*1235 n286
*1236 n287
*1237 n288
*1238 n289
*1239 n290
*1240 n291
*1241 n292
*1242 n293
*1243 n294
*1244 n295
*1245 n296
*1246 n297
*1247 n298
*1248 n299
*1249 n300
*1250 n301
*1251 n302
*1252 n303
*1253 n304
*1254 n305
*1255 n306
*1256 n307
*1257 n308
*1258 n309
*1259 n310
*1260 n311
*1261 n312
*1262 n313
*1263 n314
*1264 n315
*1265 n316
*1266 n317
*1267 n318
*1268 n319
*1269 n320
*1270 n321
*1271 n322
*1272 n323
*1273 n324
*1274 n325
*1275 n326
*1276 n327
*1277 n328
*1278 n329
*1279 n330
*1280 n331
*1281 n332
*1282 n333
*1283 n334
*1284 n335
*1285 n336
*1286 n337
*1287 n338
*1288 n339
*1289 n340
*1290 n341
*1291 n342
*1292 n343
*1293 n344
*1294 n345
*1295 n346
*1296 n347
*1297 n348
*1298 n349
*1299 n350
*1300 n351
*1301 n352
*1302 n353
*1303 n354
*1304 n355
*1305 n356
*1306 n357
*1307 n358
*1308 n359
*1309 n360
*1310 n361
*1311 n362
*1312 n363
*1313 n364
*1314 n365
*1315 n366
*1316 n367
*1317 n368
*1318 n369
*1319 n370
*1320 n371
*1321 n372
*1322 n373
*1323 n374
*1324 n375
*1325 n376
*1326 n377
*1327 n378
*1328 n379
*1329 n380
*1330 n381
*1331 n382
*1332 n383
*1333 n384
*1334 n385
*1335 n386
*1336 n387
*1337 n388
*1338 n389
*1339 n390
*1340 n391
*1341 n392
*1342 n393
*1343 n394
*1344 n395
*1345 n396
*1346 n397
*1347 n398
*1348 n399
*1349 n400
*1350 n401
*1351 n402
*1352 n403
*1353 n404
*1354 n405
*1355 n406
*1356 n407
*1357 n408
*1358 n409
*1359 n410
*1360 n411
*1361 n412
*1362 n413
*1363 n414
*1364 n415
*1365 n416
*1366 n417
*1367 n418
*1368 n419
*1369 n420
*1370 n421
*1371 n422
*1372 n423
*1373 n424
*1374 n425
*1375 n426
*1376 n427
*1377 n428
*1378 n429
*1379 n430
*1380 n431
*1381 n432
*1382 n433
*1383 n434
*1384 n435
*1385 n436
*1386 n437
*1387 n438
*1388 n439
*1389 n440
*1390 n441
*1391 n442
*1392 n443
*1393 n444
*1394 n445
*1395 n446
*1396 n447
*1397 n448
*1398 n449
*1399 n450
*1400 n451
*1401 n452
*1402 n453
*1403 n454
*1404 n455
*1405 n456
*1406 n457
*1407 n458
*1408 n459
*1409 n460
*1410 n461
*1411 n462
*1412 n463
*1413 n464
*1414 n465
*1415 n466
*1416 n467
*1417 n468
*1418 n469
*1419 n470
*1420 n471
*1421 n472
*1422 n473
*1423 n474
*1424 n475
*1425 n476
*1426 n477
*1427 n478
*1428 n479
*1429 n480
*1430 n481
*1431 n482
*1432 n483
*1433 n484
*1434 n485
*1435 n486
*1436 n487
*1437 n488
*1438 n489
*1439 n490
*1440 n491
*1441 n492
*1442 n493
*1443 n494
*1444 n495
*1445 n496
*1446 n497
*1447 n498
*1448 n499
*1449 n500
*1450 n501
*1451 n502
*1452 n503
*1453 n504
*1454 n505
*1455 n506
*1456 n507
*1457 n508
*1458 n509
*1459 n510
*1460 n511
*1461 n512
*1462 n513
*1463 n514
*1464 n515
*1465 n516
*1466 n517
*1467 n518
*1468 n519
*1469 n520
*1470 n521
*1471 n522
*1472 n523
*1473 n524
*1474 n525
*1475 n526
*1476 n527
*1477 n528
*1478 n529
*1479 n530
*1480 n531
*1481 n532
*1482 n533
*1483 n534
*1484 n535
*1485 n536
*1486 n537
*1487 n538
*1488 n539
*1489 n540
*1490 n541
*1491 n542
*1492 n543
*1493 n544
*1494 n545
*1495 n546
*1496 n547
*1497 n548
*1498 n549
*1499 n550
*1500 n551
*1501 n552
*1502 n553
*1503 n554
*1504 n555